data_ieee30bus.m
function [busdata, linedata, gendata] = data_ieee30bus()
% DATA_IEEE30BUS  Data standar IEEE 30 Bus System
% Referensi: IEEE Test Systems
% Base MVA = 100 MVA

%% DATA BUS
% Format: [Bus_No  Tipe  Pd(MW)  Qd(MVAr)  Vm(p.u.)  Va(deg)]
% Tipe: 1=Slack, 2=PV(Generator), 3=PQ(Load)
busdata = [
    1   1   0.0     0.0     1.060   0.0;
    2   2   21.7    12.7    1.043   0.0;
    3   3   2.4     1.2     1.0     0.0;
    4   3   7.6     1.6     1.0     0.0;
    5   2   94.2    19.0    1.010   0.0;
    6   3   0.0     0.0     1.0     0.0;
    7   3   22.8    10.9    1.0     0.0;
    8   2   30.0    30.0    1.010   0.0;
    9   3   0.0     0.0     1.0     0.0;
    10  3   5.8     2.0     1.0     0.0;
    11  2   0.0     0.0     1.082   0.0;
    12  3   11.2    7.5     1.0     0.0;
    13  2   0.0     0.0     1.071   0.0;
    14  3   6.2     1.6     1.0     0.0;
    15  3   8.2     2.5     1.0     0.0;
    16  3   3.5     1.8     1.0     0.0;
    17  3   9.0     5.8     1.0     0.0;
    18  3   3.2     0.9     1.0     0.0;
    19  3   9.5     3.4     1.0     0.0;
    20  3   2.2     0.7     1.0     0.0;
    21  3   17.5    11.2    1.0     0.0;
    22  3   0.0     0.0     1.0     0.0;
    23  3   3.2     1.6     1.0     0.0;
    24  3   8.7     6.7     1.0     0.0;
    25  3   0.0     0.0     1.0     0.0;
    26  3   3.5     2.3     1.0     0.0;
    27  3   0.0     0.0     1.0     0.0;
    28  3   0.0     0.0     1.0     0.0;
    29  3   2.4     0.9     1.0     0.0;
    30  3   10.6    1.9     1.0     0.0;
];

%% DATA SALURAN TRANSMISI
% Format: [From  To  R(p.u.)  X(p.u.)  B/2(p.u.)  Tap_Ratio]
% Tap_Ratio = 0 berarti saluran biasa (bukan trafo), set ke 1
linedata = [
    1   2   0.0192  0.0575  0.0264  0;
    1   3   0.0452  0.1852  0.0204  0;
    2   4   0.0570  0.1737  0.0184  0;
    3   4   0.0132  0.0379  0.0042  0;
    2   5   0.0472  0.1983  0.0209  0;
    2   6   0.0581  0.1763  0.0187  0;
    4   6   0.0119  0.0414  0.0045  0;
    5   7   0.0460  0.1160  0.0102  0;
    6   7   0.0267  0.0820  0.0085  0;
    6   8   0.0120  0.0420  0.0045  0;
    6   9   0.0      0.2080  0.0     0.978;
    6   10  0.0      0.5560  0.0     0.969;
    9   11  0.0      0.2080  0.0     1.0;
    9   10  0.0      0.1100  0.0     1.0;
    4   12  0.0      0.2560  0.0     0.932;
    12  13  0.0      0.1400  0.0     1.0;
    12  14  0.1231  0.2559  0.0     0;
    12  15  0.0662  0.1304  0.0     0;
    12  16  0.0945  0.1987  0.0     0;
    14  15  0.2210  0.1997  0.0     0;
    16  17  0.0824  0.1923  0.0     0;
    15  18  0.1070  0.2185  0.0     0;
    18  19  0.0639  0.1292  0.0     0;
    19  20  0.0340  0.0680  0.0     0;
    10  20  0.0936  0.2090  0.0     0;
    10  17  0.0324  0.0845  0.0     0;
    10  21  0.0348  0.0749  0.0     0;
    10  22  0.0727  0.1499  0.0     0;
    21  22  0.0116  0.0236  0.0     0;
    15  23  0.1000  0.2020  0.0     0;
    22  24  0.1150  0.1790  0.0     0;
    23  24  0.1320  0.2700  0.0     0;
    24  25  0.1885  0.3292  0.0     0;
    25  26  0.2544  0.3800  0.0     0;
    25  27  0.1093  0.2087  0.0     0;
    28  27  0.0      0.3960  0.0     0.968;
    27  29  0.2198  0.4153  0.0     0;
    27  30  0.3202  0.6027  0.0     0;
    29  30  0.2399  0.4533  0.0     0;
    8   28  0.0636  0.2000  0.0214  0;
    6   28  0.0169  0.0599  0.0065  0;
];

%% DATA GENERATOR
% Format: [Bus_No  Pg(MW)  Qg(MVAr)  Qmax  Qmin  Pmax  Pmin]
gendata = [
    1   260.0   0.0    10.0  -6.0   360.2  0;
    2   40.0    0.0    50.0  -40.0  140.0  0;
    5   0.0     0.0    40.0  -40.0  100.0  0;
    8   0.0     0.0    40.0  -10.0  100.0  0;
    11  0.0     0.0    24.0  -6.0   100.0  0;
    13  0.0     0.0    24.0  -6.0   100.0  0;
];

end
